$ MSC.Nastran input file created on December  02, 2022 at 14:08:22 by
$ Patran 2021
$
$ Elements and Element Properties for region : pbush.231
PBUSH    231     K      1000000.1000000.1000000.
                 RCV     1.      1.      1.      1.
$ Pset: "pbush.231" will be imported as: "pbush.231"
CBUSH    16076   231     177     677                             0
         .5
CBUSH    16077   231     187     678                             0
         .5
CBUSH    16078   231     342     679                             0
         .5
CBUSH    16079   231     352     680                             0
         .5
$ Elements and Element Properties for region : pshell.33
PSHELL   33      22      2.      22              22
$ Pset: "pshell.33" will be imported as: "pshell.33"
CQUAD4   11001   33      1       2       13      12      0.      0.
CQUAD4   11002   33      2       3       14      13      0.      0.
CQUAD4   11003   33      3       4       15      14      0.      0.
CQUAD4   11004   33      4       5       16      15      0.      0.
CQUAD4   11005   33      5       6       17      16      0.      0.
CQUAD4   11006   33      6       7       18      17      0.      0.
CQUAD4   11007   33      7       8       19      18      0.      0.
CQUAD4   11008   33      8       9       20      19      0.      0.
CQUAD4   11009   33      9       10      21      20      0.      0.
CQUAD4   11010   33      10      11      22      21      0.      0.
CQUAD4   11011   33      12      13      24      23      0.      0.
CQUAD4   11012   33      13      14      25      24      0.      0.
CQUAD4   11013   33      14      15      26      25      0.      0.
CQUAD4   11014   33      15      16      27      26      0.      0.
CQUAD4   11015   33      16      17      28      27      0.      0.
CQUAD4   11016   33      17      18      29      28      0.      0.
CQUAD4   11017   33      18      19      30      29      0.      0.
CQUAD4   11018   33      19      20      31      30      0.      0.
CQUAD4   11019   33      20      21      32      31      0.      0.
CQUAD4   11020   33      21      22      33      32      0.      0.
$ ... 680 like lines cut
$ Referenced Material Records
$ Material Record : mat1.22
$ Description of Material :
MAT1*    22              71000.          26691.729       .33
*
$ Multipoint Constraints of the Entire Model
RBE2     1       71013   123     13
RBE2     2       71021   123     21
RBE2     3       71164   123     164
RBE2     4       71156   123     156
RBE2     5       71094   123     94
RBE2     6       71129   123     118     128     129     130     140
$ Nodes of the Entire Model
GRID     1               0.      0.      100.
GRID     2               20.     0.      100.
GRID     3               40.     0.      100.
GRID     4              60.00001 0.      100.
GRID     5               80.     0.      100.
GRID     6               100.    0.      100.
GRID     7               120.    0.      100.
GRID     8               140.    0.      100.
GRID     9               160.    0.      100.
GRID     10              180.    0.      100.
GRID     11              200.    0.      100.
GRID     12              0.      20.     100.
GRID     13              20.     20.     100.
GRID     14              40.     20.     100.
GRID     15             60.00001 20.     100.
GRID     16              80.     20.     100.
GRID     17              100.    20.     100.
GRID     18              120.    20.     100.
GRID     19              140.    20.     100.
GRID     20              160.    20.     100.
$ ... 836 like lines cut
$ Loads for Load Case : Default
$ Referenced Coordinate Frames
