$ MSC.Nastran input file created on November  10, 2022 at 08:44:06 by
$ Patran 2021
$ Direct Text Input for Nastran System Cell Section
$ Direct Text Input for File Management Section
$ Direct Text Input for Executive Control
$ Linear Static Analysis, Database
SOL 101
CEND
$ Direct Text Input for Global Case Control Data
TITLE = MSC.Nastran job created on 18-Oct-22 at 16:54:19
ECHO = NONE
SUBCASE 1
   SUBTITLE=Default
   DISPLACEMENT(SORT1,REAL)=ALL
   SPCFORCES(SORT1,REAL)=ALL
   STRESS(SORT1,REAL,VONMISES,BILIN)=ALL
$ Direct Text Input for this Subcase
BEGIN BULK
$ Direct Text Input for Bulk Data
PARAM   PRTMAXIM YES
$ Elements and Element Properties for region : pshell.33
PSHELL   33      22      2.      22              22
$ Pset: "pshell.33" will be imported as: "pshell.33"
CQUAD4   11001   33      1       2       13      12
CQUAD4   11002   33      2       3       14      13
CQUAD4   11003   33      3       4       15      14
CQUAD4   11004   33      4       5       16      15
CQUAD4   11005   33      5       6       17      16
CQUAD4   11006   33      6       7       18      17
CQUAD4   11007   33      7       8       19      18
CQUAD4   11008   33      8       9       20      19
CQUAD4   11009   33      9       10      21      20
CQUAD4   11010   33      10      11      22      21
CQUAD4   11011   33      12      13      24      23
CQUAD4   11012   33      13      14      25      24
CQUAD4   11013   33      14      15      26      25
CQUAD4   11014   33      15      16      27      26
CQUAD4   11015   33      16      17      28      27
CQUAD4   11016   33      17      18      29      28
CQUAD4   11017   33      18      19      30      29
CQUAD4   11018   33      19      20      31      30
CQUAD4   11019   33      20      21      32      31
CQUAD4   11020   33      21      22      33      32
$ ... 530 like lines cut
$ Elements and Element Properties for region : pbush.231
PBUSH    231     K      1000000.1000000.1000000.
$ Pset: "pbush.231" will be imported as: "pbush.231"
CBUSH    16076   231     177     677                             0
CBUSH    16077   231     187     678                             0
CBUSH    16078   231     342     679                             0
CBUSH    16079   231     352     680                             0
CBUSH    16080   231     563     581                             0
$ Referenced Material Records
$ Material Record : mat1.22
$ Description of Material : Date: 18-Oct-22           Time: 16:53:03
MAT1     22      71000.          .33
$ Nodes of the Entire Model
GRID     1               0.      0.      100.
GRID     2               20.     0.      100.
GRID     3               40.     0.      100.
GRID     4              60.00001 0.      100.
GRID     5               80.     0.      100.
GRID     6               100.    0.      100.
GRID     7               120.    0.      100.
GRID     8               140.    0.      100.
GRID     9               160.    0.      100.
GRID     10              180.    0.      100.
GRID     11              200.    0.      100.
GRID     12              0.      20.     100.
GRID     13              20.     20.     100.
GRID     14              40.     20.     100.
GRID     15             60.00001 20.     100.
GRID     16              80.     20.     100.
GRID     17              100.    20.     100.
GRID     18              120.    20.     100.
GRID     19              140.    20.     100.
GRID     20              160.    20.     100.
$ ... 660 like lines cut
$ Loads for Load Case : Default
$ Referenced Coordinate Frames
ENDDATA 03e13254
